Version 4.1
SHEET 1 968 772
WIRE 352 -272 144 -272
WIRE 352 -192 256 -192
WIRE 544 -192 352 -192
WIRE 352 -128 352 -192
WIRE 400 -128 352 -128
WIRE 352 -16 208 -16
WIRE 496 -16 352 -16
WIRE 848 -16 496 -16
WIRE -64 80 -160 80
WIRE 96 80 16 80
WIRE 208 80 208 -16
WIRE 256 80 256 -192
WIRE 352 80 352 -16
WIRE 400 80 400 -128
WIRE 496 80 496 -16
WIRE 544 80 544 -192
WIRE 96 208 96 80
WIRE 208 208 208 144
WIRE 208 208 96 208
WIRE 848 208 848 -16
WIRE -64 224 -160 224
WIRE 352 224 352 144
WIRE 352 224 16 224
WIRE -64 336 -160 336
WIRE 496 336 496 144
WIRE 496 336 16 336
WIRE 208 368 208 208
WIRE 352 368 352 224
WIRE 496 368 496 336
WIRE -160 384 -160 336
WIRE 208 528 208 432
WIRE 352 528 352 432
WIRE 352 528 208 528
WIRE 496 528 496 432
WIRE 496 528 352 528
WIRE 848 528 848 288
WIRE 848 528 496 528
WIRE 256 624 256 368
WIRE 352 624 256 624
WIRE 400 624 400 368
WIRE 400 624 352 624
WIRE 544 624 544 368
WIRE 544 624 400 624
WIRE 352 672 352 624
WIRE 752 752 352 752
FLAG -160 160 0
FLAG -160 304 0
FLAG -160 464 0
FLAG 752 752 0
FLAG 144 -272 0
SYMBOL voltage -160 64 R0
WINDOW 123 0 0 Left 0
WINDOW 39 0 0 Left 0
SYMATTR InstName V1
SYMATTR Value SINE(0 325 50 0 0 0)
SYMBOL voltage -160 208 R0
WINDOW 123 0 0 Left 0
WINDOW 39 0 0 Left 0
SYMATTR InstName V2
SYMATTR Value SINE(0 325 50 0 0 120)
SYMBOL voltage -160 368 R0
WINDOW 123 0 0 Left 0
WINDOW 39 0 0 Left 0
SYMATTR InstName V3
SYMATTR Value SINE(0 325 50 0 0 240)
SYMBOL Misc\\SCR 224 144 R180
SYMATTR InstName U1
SYMATTR Value TN6050HP-12
SYMBOL Misc\\SCR 512 432 R180
SYMATTR InstName U2
SYMATTR Value TN6050HP-12
SYMBOL Misc\\SCR 368 144 R180
SYMATTR InstName U3
SYMATTR Value TN6050HP-12
SYMBOL Misc\\SCR 224 432 R180
SYMATTR InstName U4
SYMATTR Value TN6050HP-12
SYMBOL Misc\\SCR 512 144 R180
SYMATTR InstName U5
SYMATTR Value TN6050HP-12
SYMBOL Misc\\SCR 368 432 R180
SYMATTR InstName U6
SYMATTR Value TN6050HP-12
SYMBOL res 832 192 R0
SYMATTR InstName R1
SYMATTR Value 15
SYMBOL voltage 352 -176 R180
WINDOW 0 24 96 Left 2
WINDOW 3 24 16 Left 2
WINDOW 123 0 0 Left 0
WINDOW 39 0 0 Left 0
SYMATTR InstName V4
SYMATTR Value PULSE(0 5 1.7m 1n 1n 1m 20m)
SYMBOL voltage 352 656 R0
WINDOW 123 0 0 Left 0
WINDOW 39 0 0 Left 0
SYMATTR InstName V5
SYMATTR Value PULSE(0 5 1.7m 1n 1n 1m 20m)
SYMBOL res 32 64 R90
WINDOW 0 0 56 VBottom 2
WINDOW 3 32 56 VTop 2
SYMATTR InstName R2
SYMATTR Value 0.001
SYMBOL res 32 208 R90
WINDOW 0 0 56 VBottom 2
WINDOW 3 32 56 VTop 2
SYMATTR InstName R3
SYMATTR Value 0.001
SYMBOL res 32 320 R90
WINDOW 0 0 56 VBottom 2
WINDOW 3 32 56 VTop 2
SYMATTR InstName R4
SYMATTR Value 0.001
TEXT -192 488 Left 2 !.tran 1
TEXT -488 -408 Left 2 !.inc C:\\Users\\amanr\\OneDrive\\Pictures\\Desktop\\LTSpice_2A\\st_high-temperature_scr_pspice\\st_high-temperature_scr.lib
