Version 4.1
SHEET 1 880 680
WIRE -432 -112 -496 -112
WIRE 384 -112 -352 -112
WIRE -496 -96 -496 -112
WIRE 384 -80 384 -112
WIRE 384 -80 368 -80
WIRE 512 -80 384 -80
WIRE 384 -32 384 -80
WIRE 384 -32 -64 -32
WIRE 512 16 512 -80
WIRE 48 80 -224 80
WIRE 384 80 384 -32
WIRE 384 80 272 80
WIRE 512 128 512 96
WIRE 512 128 288 128
WIRE 144 144 48 144
WIRE 288 144 288 128
WIRE 288 144 272 144
WIRE 512 160 512 128
WIRE -304 208 -304 96
WIRE 48 208 -304 208
WIRE 64 208 48 208
WIRE 144 208 144 144
WIRE 272 208 144 208
WIRE 320 208 272 208
WIRE -64 272 -64 -32
WIRE 48 272 -64 272
WIRE 320 272 320 208
WIRE 512 272 512 240
WIRE 512 272 320 272
WIRE 512 304 512 272
WIRE -224 400 -224 80
WIRE 96 400 -224 400
WIRE 96 448 96 400
WIRE 512 448 512 368
WIRE 512 448 96 448
WIRE 512 480 512 448
FLAG -496 -96 0
FLAG 512 480 0
SYMBOL Misc\\NE555 160 176 R0
SYMATTR InstName U1
SYMBOL voltage -336 -112 R90
WINDOW 0 -32 56 VBottom 2
WINDOW 3 32 56 VTop 2
WINDOW 123 0 0 Left 0
WINDOW 39 0 0 Left 0
SYMATTR InstName V1
SYMATTR Value 10
SYMBOL res 496 0 R0
SYMATTR InstName R1
SYMATTR Value 10k
SYMBOL res 496 144 R0
SYMATTR InstName R2
SYMATTR Value 10k
SYMBOL cap 496 304 R0
SYMATTR InstName C1
SYMATTR Value 0.1µ
TEXT -640 504 Left 2 !.tran 1
TEXT -904 56 Left 2 ;ofcourse -ve trigger kind of
