Version 4.1
SHEET 1 1624 680
WIRE 832 -352 -336 -352
WIRE -32 -32 -96 -32
WIRE 112 -32 -32 -32
WIRE 528 -32 336 -32
WIRE 704 -32 528 -32
WIRE 784 -32 704 -32
WIRE 928 -32 784 -32
WIRE 1040 -32 992 -32
WIRE 1248 -32 1120 -32
WIRE 176 16 112 16
WIRE 1392 16 1392 0
WIRE 1568 16 1392 16
WIRE 112 48 16 48
WIRE 336 48 336 -32
WIRE 528 48 528 -32
WIRE 704 48 704 -32
WIRE -96 128 -96 -32
WIRE 1392 128 1392 16
WIRE 1568 128 1568 16
WIRE 784 144 784 -32
WIRE 176 160 176 16
WIRE 336 160 336 112
WIRE 336 160 176 160
WIRE -32 176 -32 -32
WIRE 112 176 -32 176
WIRE 528 176 528 112
WIRE 528 176 176 176
WIRE 528 192 528 176
WIRE 528 192 192 192
WIRE 704 192 704 112
WIRE 704 192 528 192
WIRE 176 208 176 176
WIRE 176 208 112 208
WIRE 336 208 336 160
WIRE 16 256 16 48
WIRE 112 256 16 256
WIRE 1392 304 1392 208
WIRE 1568 304 1568 208
WIRE 1568 304 1392 304
WIRE -32 368 -32 176
WIRE 112 368 -32 368
WIRE 336 368 336 272
WIRE 528 368 528 256
WIRE 528 368 336 368
WIRE 704 368 704 256
WIRE 704 368 528 368
WIRE 784 368 784 208
WIRE 784 368 704 368
WIRE 992 368 992 -32
WIRE 992 368 784 368
WIRE 1248 368 1248 -32
WIRE 1248 368 992 368
WIRE 192 416 192 192
WIRE 192 416 128 416
WIRE 16 448 16 256
WIRE 112 448 16 448
WIRE -96 464 -96 208
WIRE -336 640 -336 -352
WIRE 832 640 832 -352
WIRE 832 640 -336 640
FLAG -96 464 0
SYMBOL voltage -96 112 R0
WINDOW 123 0 0 Left 0
WINDOW 39 0 0 Left 0
SYMATTR InstName 230V_AC_SUPPLY
SYMATTR Value SINE(0 325 50)
SYMBOL SCR 352 112 R180
SYMATTR InstName U1
SYMBOL SCR 544 112 R180
SYMATTR InstName U2
SYMBOL SCR 720 112 R180
SYMATTR InstName U3
SYMBOL diode 352 272 R180
WINDOW 0 24 64 Left 2
WINDOW 3 24 0 Left 2
SYMATTR InstName D1
SYMBOL diode 544 256 R180
WINDOW 0 24 64 Left 2
WINDOW 3 24 0 Left 2
SYMATTR InstName D2
SYMBOL diode 720 256 R180
WINDOW 0 24 64 Left 2
WINDOW 3 24 0 Left 2
SYMATTR InstName D3
SYMBOL ind 96 -48 R0
SYMATTR InstName L1
SYMBOL ind 96 160 R0
SYMATTR InstName L2
SYMBOL ind 96 352 R0
SYMATTR InstName L3
SYMBOL diode 800 208 R180
WINDOW 0 24 64 Left 2
WINDOW 3 24 0 Left 2
SYMATTR InstName D4
SYMBOL diode 928 -16 R270
WINDOW 0 32 32 VTop 2
WINDOW 3 0 32 VBottom 2
SYMATTR InstName D5
SYMBOL res 1136 -48 R90
WINDOW 0 0 56 VBottom 2
WINDOW 3 32 56 VTop 2
SYMATTR InstName R1
SYMBOL ind 1408 224 R180
WINDOW 0 36 80 Left 2
WINDOW 3 36 40 Left 2
SYMATTR InstName L4
SYMBOL voltage 1568 112 R0
SYMATTR InstName V1
TEXT -144 -64 Left 2 ;speed control of Seperately excited dc motor (synchronous) usin 3 phase semi converter
TEXT 1208 168 Left 2 ;DC motor
TEXT 968 160 Left 2 ;voltmeter
TEXT 1208 -32 Left 2 ;ammeter
TEXT -920 -16 Left 2 ;Voltage         Current            Speed
TEXT -1184 -16 Left 2 ;FIRING_ANGLE
