Version 4.1
SHEET 1 880 680
WIRE 208 240 208 224
WIRE 208 240 144 240
WIRE 272 240 208 240
WIRE 144 272 144 240
WIRE 272 272 272 240
WIRE 368 352 272 352
WIRE 448 352 432 352
WIRE 480 352 448 352
WIRE -176 400 -432 400
WIRE -64 400 -96 400
WIRE 144 400 144 352
WIRE 144 400 0 400
WIRE 208 400 144 400
WIRE -432 416 -432 400
WIRE 144 448 144 400
WIRE 272 464 272 448
WIRE 448 464 448 352
WIRE 144 544 144 528
WIRE 208 544 144 544
WIRE 272 544 208 544
WIRE 208 592 208 544
WIRE 448 608 448 544
FLAG 480 352 Vout
FLAG 208 592 0
FLAG -432 416 0
FLAG 208 144 0
FLAG 448 608 0
FLAG -96 400 Vin
SYMBOL res 128 256 R0
SYMATTR InstName R1
SYMATTR Value 47k
SYMBOL res 256 256 R0
SYMATTR InstName R2
SYMATTR Value 1k
SYMBOL Contrib\\Toshiba\\bjt\\TMBT3904 208 352 R0
SYMATTR InstName BJT
SYMBOL res 128 432 R0
SYMATTR InstName R3
SYMATTR Value 10k
SYMBOL voltage -80 400 R90
WINDOW 123 0 0 Left 0
WINDOW 39 0 0 Left 0
SYMATTR InstName V2
SYMATTR Value SINE(0 50m 1k)
SYMBOL cap 432 336 R90
WINDOW 0 0 32 VBottom 2
WINDOW 3 32 32 VTop 2
SYMATTR InstName C1
SYMATTR Value 2.2µ
SYMBOL cap 0 384 R90
WINDOW 0 0 32 VBottom 2
WINDOW 3 32 32 VTop 2
SYMATTR InstName C2
SYMATTR Value 2.2µ
SYMBOL voltage 208 240 R180
WINDOW 0 24 96 Left 2
WINDOW 3 24 16 Left 2
WINDOW 123 0 0 Left 0
WINDOW 39 0 0 Left 0
SYMATTR InstName VCC
SYMATTR Value 15
SYMBOL res 432 448 R0
SYMATTR InstName R5
SYMATTR Value 20k
SYMBOL res 256 448 R0
SYMATTR InstName R4
SYMATTR Value 0.1k
TEXT 0 360 Left 2 !.tran 5m
